<?xml version="1.0" encoding="UTF-8"?>

<!-- generated on 2025-12-09T22:13:06.191495+01:00 by Eclipse SUMO netedit 1.25.0
<neteditConfiguration xmlns:xsi="http://www.w3.org/2001/XMLSchema-instance" xsi:noNamespaceSchemaLocation="http://sumo.dlr.de/xsd/neteditConfiguration.xsd">

    <input>
        <sumo-net-file value="C:\Users\17608\Downloads\Test\demo2.net.xml"/>
    </input>

    <output>
        <output-file value="C:\Users\17608\Downloads\Test\demo2.net.xml"/>
    </output>

    <processing>
        <geometry.min-radius.fix.railways value="false"/>
        <geometry.avoid-overlap value="false"/>
        <geometry.max-grade.fix value="false"/>
        <offset.disable-normalization value="true"/>
        <lefthand value="0"/>
    </processing>

    <junctions>
        <no-internal-links value="true"/>
        <no-turnarounds value="true"/>
        <junctions.corner-detail value="5"/>
        <junctions.limit-turn-speed value="5.50"/>
        <rectangular-lane-cut value="0"/>
    </junctions>

    <pedestrian>
        <walkingareas value="0"/>
    </pedestrian>

</neteditConfiguration>
-->

<net version="1.20" junctionCornerDetail="5" limitTurnSpeed="5.50" avoidOverlap="0" xmlns:xsi="http://www.w3.org/2001/XMLSchema-instance" xsi:noNamespaceSchemaLocation="http://sumo.dlr.de/xsd/net_file.xsd">

    <location netOffset="0.00,0.00" convBoundary="-48.08,27.35,33.22,27.64" origBoundary="-10000000000.00,-10000000000.00,10000000000.00,10000000000.00" projParameter="!"/>

    <edge id="-E1" from="J1" to="J0" priority="-1">
        <lane id="-E1_0" index="0" speed="13.89" length="81.30" shape="33.21,29.24 -48.09,28.95"/>
    </edge>
    <edge id="E1" from="J0" to="J1" priority="-1">
        <lane id="E1_0" index="0" speed="13.89" length="81.30" shape="-48.07,25.75 33.23,26.04"/>
    </edge>

    <junction id="J0" type="dead_end" x="-48.08" y="27.35" incLanes="-E1_0" intLanes="" shape="-48.08,27.35 -48.09,30.55 -48.08,27.35"/>
    <junction id="J1" type="dead_end" x="33.22" y="27.64" incLanes="E1_0" intLanes="" shape="33.22,27.64 33.23,24.44 33.22,27.64"/>

</net>
