<?xml version="1.0" encoding="UTF-8"?>

<sumoConfiguration xmlns:xsi="http://www.w3.org/2001/XMLSchema-instance"
                   xsi:noNamespaceSchemaLocation="http://sumo.dlr.de/xsd/sumoConfiguration.xsd">

    <input>
        <net-file value="test2.net.xml"/>
        <!-- yahan apna routes file add karo -->
        <route-files value="test2.rou.xml"/>
    </input>

</sumoConfiguration>
