<?xml version="1.0" encoding="UTF-8"?>

<!-- generated on 2025-11-26T02:49:17.351009+01:00 by Eclipse SUMO netedit 1.25.0
-->

<routes xmlns:xsi="http://www.w3.org/2001/XMLSchema-instance" xsi:noNamespaceSchemaLocation="http://sumo.dlr.de/xsd/routes_file.xsd">
    <!-- Vehicles, persons and containers (sorted by depart) -->
    <flow id="f_0" begin="0.00" end="3600.00" perHour="1800.00" from="E0" to="E0"/>
    <flow id="f_1" begin="0.00" end="3600.00" perHour="1800.00" from="-E0" to="-E0"/>
</routes>
