<?xml version="1.0" encoding="UTF-8"?>

<!-- generated on 2025-11-26T02:49:17.353125+01:00 by Eclipse SUMO sumo 1.25.0
-->

<sumoConfiguration xmlns:xsi="http://www.w3.org/2001/XMLSchema-instance" xsi:noNamespaceSchemaLocation="http://sumo.dlr.de/xsd/sumoConfiguration.xsd">

    <input>
        <net-file value="D:\GhtDemo\sumo\sumo\SumoTraciJava\demo2.net.xml"/>
        <route-files value="D:\GhtDemo\sumo\sumo\SumoTraciJava\demo2.rou.xml"/>
    </input>

</sumoConfiguration>
